/*--------------------------------*- C++ -*----------------------------------*\
| =========                 |                                                 |
| \\      /  F ield         | OpenFOAM: The Open Source CFD Toolbox           |
|  \\    /   O peration     | Version:  v2006                                 |
|   \\  /    A nd           | Web:      www.OpenFOAM.com                      |
|    \\/     M anipulation  |                                                 |
\*---------------------------------------------------------------------------*/
FoamFile
{
    version     2.0;
    format      ascii;
    class       volScalarField;
    location    "0";
    object      k;
}
// * * * * * * * * * * * * * * * * * * * * * * * * * * * * * * * * * * * * * //

dimensions      [0 2 -2 0 0 0 0];

internalField   uniform 0.0037500000000000007;

boundaryField
{
    movingWall
    {
        type            fixedValue;
        value           uniform 0.0037500000000000007;
    }
    fixedWalls
    {
        type            kLowReWallFunction;
        value           uniform 0.0037500000000000007;
    }
    frontAndBack
    {
        type            empty;
    }
}