/*--------------------------------*- C++ -*----------------------------------*\
  =========                 |
  \\      /  F ield         | OpenFOAM: The Open Source CFD Toolbox
   \\    /   O peration     | Website:  https://openfoam.org
    \\  /    A nd           | Version:  10
     \\/     M anipulation  |
\*---------------------------------------------------------------------------*/
FoamFile
{
	version     2.0;
    format      ascii;
    class       dictionary;
    object      decomposeParDict;
}
// * * * * * * * * * * * * * * * * * * * * * * * * * * * * * * * * * * * * * //

numberOfSubdomains  4;

method              simple;

simpleCoeffs
{
    n               (4 1 1); // total must match numberOfSubdomains
}

hierarchicalCoeffs
{
    n               (4 2 1); // total must match numberOfSubdomains
    order           xyz;
}


// ************************************************************************* //
