/*--------------------------------*- C++ -*----------------------------------*\
| =========                 |                                                 |
| \\      /  F ield         | foam-extend: Open Source CFD                    |
|  \\    /   O peration     | Version:     5.0                                |
|   \\  /    A nd           | Web:         http://www.foam-extend.org         |
|    \\/     M anipulation  |                                                 |
\*---------------------------------------------------------------------------*/
FoamFile
{
    version     2.0;
    format      ascii;
    class       polyBoundaryMesh;
    location    "constant/polyMesh";
    object      boundary;
}
// * * * * * * * * * * * * * * * * * * * * * * * * * * * * * * * * * * * * * //

3
(
    movingWall
    {
        type            wall;
        nFaces          128;
        startFace       32512;
        closedSolidBodyMotion false;
    }
    fixedWalls
    {
        type            wall;
        nFaces          384;
        startFace       32640;
        closedSolidBodyMotion false;
    }
    frontAndBack
    {
        type            empty;
        nFaces          32768;
        startFace       33024;
    }
)


// ************************************************************************* //
